Circuit: * C:\Users\jaket\Dropbox\Fall 2023\Senior Design\github\ClassD_SR_48V.asc

WARNING: Node N028 is floating.
WARNING: Node N022 is floating.
WARNING: Node N012 is floating.
WARNING: Node N007 is floating.

WARNING: Less than two connections to node n015.  This node is used by v2.
WARNING: Less than two connections to node n028.  This node is used by r7.
WARNING: Less than two connections to node n022.  This node is used by r8.
WARNING: Less than two connections to node n027.  This node is used by r10.
WARNING: Less than two connections to node n012.  This node is used by r9.
WARNING: Less than two connections to node n007.  This node is used by r11.
WARNING: Less than two connections to node n011.  This node is used by r12.
Per .tran options, skipping operating point for transient analysis.
Changing Tseed to 5.85937e-11
Changing Tseed to 5.85937e-13

Date: Sun Dec 10 16:49:46 2023
Total elapsed time: 0.716 seconds.

tnom = 27
temp = 27
method = modified trap
totiter = 13223
traniter = 13223
tranpoints = 3752
accept = 2949
rejected = 801
matrix size = 89
fillins = 71
solver = Normal
Avg thread counts: 1.1/1.3/1.3/1.1
Matrix Compiler1: 11.07 KB object code size  3.8/2.5/[0.6]
Matrix Compiler2: 8.71 KB object code size  2.0/2.0/[0.5]

